/*--------------------------------*- C++ -*----------------------------------*\
  =========                 |
  \\      /  F ield         | OpenFOAM: The Open Source CFD Toolbox
   \\    /   O peration     | Website:  https://openfoam.org
    \\  /    A nd           | Version:  6
     \\/     M anipulation  |
\*---------------------------------------------------------------------------*/
FoamFile
{
    version     2.0;
    format      ascii;
    class       dictionary;
    location    "system";
    object      fvSchemes;
}
// * * * * * * * * * * * * * * * * * * * * * * * * * * * * * * * * * * * * * //

ddtSchemes
{
    default         Euler;
}

gradSchemes
{
    default         Gauss linear;
}

divSchemes
{
    div(rhoPhi,U)   Gauss vanLeerV;
    div(phi,alpha)  Gauss vanLeer;
    div(phirb,alpha) Gauss interfaceCompression;
    div(((rho*nuEff)*dev2(T(grad(U))))) Gauss linear;
    div(phi,Ci) Gauss vanLeer;
    div(((interpolate(((Di*(1-Hei))|(alpha.water+(Hei*alpha.air))))*snGrad(alpha.water))*magSf),Ci) Gauss vanLeer;
    div((interpolate(((((1-Hei)*alpha.water)*alpha.air)|(alpha.water+(Hei*alpha.air))))*((1*mag((phi|magSf)))*nHatf)),Ci) Gauss vanLeer;
}


laplacianSchemes
{
    default         Gauss linear corrected;
}

interpolationSchemes
{
    default         linear;
}

snGradSchemes
{
    default         corrected;
}



// ************************************************************************* //
